182

C       0.6287023673143490       0.0000000000000000       0.4445597072760119
C      -0.6287023673143490       0.0000000000000000      -0.4445597072760119
H       0.6287023673143490       0.8981462390204987       1.0796450033846001
H       0.6287023673143490      -0.8981462390204987       1.0796450033846001
H      -0.6287023673143490       0.8981462390204987      -1.0796450033846001
H      -0.6287023673143490      -0.8981462390204987      -1.0796450033846001
C       1.8861071019430471       0.0000000000000000      -0.4445597072760119
C      -1.8861071019430471       0.0000000000000000       0.4445597072760119
H       1.8861071019430471       0.8981462390204987      -1.0796450033846001
H       1.8861071019430471      -0.8981462390204987      -1.0796450033846001
H      -1.8861071019430471       0.8981462390204987       1.0796450033846001
H      -1.8861071019430471      -0.8981462390204987       1.0796450033846001
C       3.1435118365717454       0.0000000000000000       0.4445597072760119
C      -3.1435118365717454       0.0000000000000000      -0.4445597072760119
H       3.1435118365717454       0.8981462390204987       1.0796450033846001
H       3.1435118365717454      -0.8981462390204987       1.0796450033846001
H      -3.1435118365717454       0.8981462390204987      -1.0796450033846001
H      -3.1435118365717454      -0.8981462390204987      -1.0796450033846001
C       4.4009165712004439       0.0000000000000000      -0.4445597072760119
C      -4.4009165712004439       0.0000000000000000       0.4445597072760119
H       4.4009165712004439       0.8981462390204987      -1.0796450033846001
H       4.4009165712004439      -0.8981462390204987      -1.0796450033846001
H      -4.4009165712004439       0.8981462390204987       1.0796450033846001
H      -4.4009165712004439      -0.8981462390204987       1.0796450033846001
C       5.6583213058291424       0.0000000000000000       0.4445597072760119
C      -5.6583213058291424       0.0000000000000000      -0.4445597072760119
H       5.6583213058291424       0.8981462390204987       1.0796450033846001
H       5.6583213058291424      -0.8981462390204987       1.0796450033846001
H      -5.6583213058291424       0.8981462390204987      -1.0796450033846001
H      -5.6583213058291424      -0.8981462390204987      -1.0796450033846001
C       6.9157260404578409       0.0000000000000000      -0.4445597072760119
C      -6.9157260404578409       0.0000000000000000       0.4445597072760119
H       6.9157260404578409       0.8981462390204987      -1.0796450033846001
H       6.9157260404578409      -0.8981462390204987      -1.0796450033846001
H      -6.9157260404578409       0.8981462390204987       1.0796450033846001
H      -6.9157260404578409      -0.8981462390204987       1.0796450033846001
C       8.1731307750865394       0.0000000000000000       0.4445597072760119
C      -8.1731307750865394       0.0000000000000000      -0.4445597072760119
H       8.1731307750865394       0.8981462390204987       1.0796450033846001
H       8.1731307750865394      -0.8981462390204987       1.0796450033846001
H      -8.1731307750865394       0.8981462390204987      -1.0796450033846001
H      -8.1731307750865394      -0.8981462390204987      -1.0796450033846001
C       9.4305355097152379       0.0000000000000000      -0.4445597072760119
C      -9.4305355097152379       0.0000000000000000       0.4445597072760119
H       9.4305355097152379       0.8981462390204987      -1.0796450033846001
H       9.4305355097152379      -0.8981462390204987      -1.0796450033846001
H      -9.4305355097152379       0.8981462390204987       1.0796450033846001
H      -9.4305355097152379      -0.8981462390204987       1.0796450033846001
C      10.6879402443439364       0.0000000000000000       0.4445597072760119
C     -10.6879402443439364       0.0000000000000000      -0.4445597072760119
H      10.6879402443439364       0.8981462390204987       1.0796450033846001
H      10.6879402443439364      -0.8981462390204987       1.0796450033846001
H     -10.6879402443439364       0.8981462390204987      -1.0796450033846001
H     -10.6879402443439364      -0.8981462390204987      -1.0796450033846001
C      11.9453449789726349       0.0000000000000000      -0.4445597072760119
C     -11.9453449789726349       0.0000000000000000       0.4445597072760119
H      11.9453449789726349       0.8981462390204987      -1.0796450033846001
H      11.9453449789726349      -0.8981462390204987      -1.0796450033846001
H     -11.9453449789726349       0.8981462390204987       1.0796450033846001
H     -11.9453449789726349      -0.8981462390204987       1.0796450033846001
C      13.2027497136013334       0.0000000000000000       0.4445597072760119
C     -13.2027497136013334       0.0000000000000000      -0.4445597072760119
H      13.2027497136013334       0.8981462390204987       1.0796450033846001
H      13.2027497136013334      -0.8981462390204987       1.0796450033846001
H     -13.2027497136013334       0.8981462390204987      -1.0796450033846001
H     -13.2027497136013334      -0.8981462390204987      -1.0796450033846001
C      14.4601544482300319       0.0000000000000000      -0.4445597072760119
C     -14.4601544482300319       0.0000000000000000       0.4445597072760119
H      14.4601544482300319       0.8981462390204987      -1.0796450033846001
H      14.4601544482300319      -0.8981462390204987      -1.0796450033846001
H     -14.4601544482300319       0.8981462390204987       1.0796450033846001
H     -14.4601544482300319      -0.8981462390204987       1.0796450033846001
C      15.7175591828587304       0.0000000000000000       0.4445597072760119
C     -15.7175591828587304       0.0000000000000000      -0.4445597072760119
H      15.7175591828587304       0.8981462390204987       1.0796450033846001
H      15.7175591828587304      -0.8981462390204987       1.0796450033846001
H     -15.7175591828587304       0.8981462390204987      -1.0796450033846001
H     -15.7175591828587304      -0.8981462390204987      -1.0796450033846001
C      16.9749639174874289       0.0000000000000000      -0.4445597072760119
C     -16.9749639174874289       0.0000000000000000       0.4445597072760119
H      16.9749639174874289       0.8981462390204987      -1.0796450033846001
H      16.9749639174874289      -0.8981462390204987      -1.0796450033846001
H     -16.9749639174874289       0.8981462390204987       1.0796450033846001
H     -16.9749639174874289      -0.8981462390204987       1.0796450033846001
C      18.2323686521161257       0.0000000000000000       0.4445597072760119
C     -18.2323686521161257       0.0000000000000000      -0.4445597072760119
H      18.2323686521161257       0.8981462390204987       1.0796450033846001
H      18.2323686521161257      -0.8981462390204987       1.0796450033846001
H     -18.2323686521161257       0.8981462390204987      -1.0796450033846001
H     -18.2323686521161257      -0.8981462390204987      -1.0796450033846001
C      19.4897733867448224       0.0000000000000000      -0.4445597072760119
C     -19.4897733867448224       0.0000000000000000       0.4445597072760119
H      19.4897733867448224       0.8981462390204987      -1.0796450033846001
H      19.4897733867448224      -0.8981462390204987      -1.0796450033846001
H     -19.4897733867448224       0.8981462390204987       1.0796450033846001
H     -19.4897733867448224      -0.8981462390204987       1.0796450033846001
C      20.7471781213735191       0.0000000000000000       0.4445597072760119
C     -20.7471781213735191       0.0000000000000000      -0.4445597072760119
H      20.7471781213735191       0.8981462390204987       1.0796450033846001
H      20.7471781213735191      -0.8981462390204987       1.0796450033846001
H     -20.7471781213735191       0.8981462390204987      -1.0796450033846001
H     -20.7471781213735191      -0.8981462390204987      -1.0796450033846001
C      22.0045828560022159       0.0000000000000000      -0.4445597072760119
C     -22.0045828560022159       0.0000000000000000       0.4445597072760119
H      22.0045828560022159       0.8981462390204987      -1.0796450033846001
H      22.0045828560022159      -0.8981462390204987      -1.0796450033846001
H     -22.0045828560022159       0.8981462390204987       1.0796450033846001
H     -22.0045828560022159      -0.8981462390204987       1.0796450033846001
C      23.2619875906309126       0.0000000000000000       0.4445597072760119
C     -23.2619875906309126       0.0000000000000000      -0.4445597072760119
H      23.2619875906309126       0.8981462390204987       1.0796450033846001
H      23.2619875906309126      -0.8981462390204987       1.0796450033846001
H     -23.2619875906309126       0.8981462390204987      -1.0796450033846001
H     -23.2619875906309126      -0.8981462390204987      -1.0796450033846001
C      24.5193923252596093       0.0000000000000000      -0.4445597072760119
C     -24.5193923252596093       0.0000000000000000       0.4445597072760119
H      24.5193923252596093       0.8981462390204987      -1.0796450033846001
H      24.5193923252596093      -0.8981462390204987      -1.0796450033846001
H     -24.5193923252596093       0.8981462390204987       1.0796450033846001
H     -24.5193923252596093      -0.8981462390204987       1.0796450033846001
C      25.7767970598883061       0.0000000000000000       0.4445597072760119
C     -25.7767970598883061       0.0000000000000000      -0.4445597072760119
H      25.7767970598883061       0.8981462390204987       1.0796450033846001
H      25.7767970598883061      -0.8981462390204987       1.0796450033846001
H     -25.7767970598883061       0.8981462390204987      -1.0796450033846001
H     -25.7767970598883061      -0.8981462390204987      -1.0796450033846001
C      27.0342017945170028       0.0000000000000000      -0.4445597072760119
C     -27.0342017945170028       0.0000000000000000       0.4445597072760119
H      27.0342017945170028       0.8981462390204987      -1.0796450033846001
H      27.0342017945170028      -0.8981462390204987      -1.0796450033846001
H     -27.0342017945170028       0.8981462390204987       1.0796450033846001
H     -27.0342017945170028      -0.8981462390204987       1.0796450033846001
C      28.2916065291456995       0.0000000000000000       0.4445597072760119
C     -28.2916065291456995       0.0000000000000000      -0.4445597072760119
H      28.2916065291456995       0.8981462390204987       1.0796450033846001
H      28.2916065291456995      -0.8981462390204987       1.0796450033846001
H     -28.2916065291456995       0.8981462390204987      -1.0796450033846001
H     -28.2916065291456995      -0.8981462390204987      -1.0796450033846001
C      29.5490112637743962       0.0000000000000000      -0.4445597072760119
C     -29.5490112637743962       0.0000000000000000       0.4445597072760119
H      29.5490112637743962       0.8981462390204987      -1.0796450033846001
H      29.5490112637743962      -0.8981462390204987      -1.0796450033846001
H     -29.5490112637743962       0.8981462390204987       1.0796450033846001
H     -29.5490112637743962      -0.8981462390204987       1.0796450033846001
C      30.8064159984030930       0.0000000000000000       0.4445597072760119
C     -30.8064159984030930       0.0000000000000000      -0.4445597072760119
H      30.8064159984030930       0.8981462390204987       1.0796450033846001
H      30.8064159984030930      -0.8981462390204987       1.0796450033846001
H     -30.8064159984030930       0.8981462390204987      -1.0796450033846001
H     -30.8064159984030930      -0.8981462390204987      -1.0796450033846001
C      32.0638207330317897       0.0000000000000000      -0.4445597072760119
C     -32.0638207330317897       0.0000000000000000       0.4445597072760119
H      32.0638207330317897       0.8981462390204987      -1.0796450033846001
H      32.0638207330317897      -0.8981462390204987      -1.0796450033846001
H     -32.0638207330317897       0.8981462390204987       1.0796450033846001
H     -32.0638207330317897      -0.8981462390204987       1.0796450033846001
C      33.3212254676604900       0.0000000000000000       0.4445597072760119
C     -33.3212254676604900       0.0000000000000000      -0.4445597072760119
H      33.3212254676604900       0.8981462390204987       1.0796450033846001
H      33.3212254676604900      -0.8981462390204987       1.0796450033846001
H     -33.3212254676604900       0.8981462390204987      -1.0796450033846001
H     -33.3212254676604900      -0.8981462390204987      -1.0796450033846001
C      34.5786302022891903       0.0000000000000000      -0.4445597072760119
C     -34.5786302022891903       0.0000000000000000       0.4445597072760119
H      34.5786302022891903       0.8981462390204987      -1.0796450033846001
H      34.5786302022891903      -0.8981462390204987      -1.0796450033846001
H     -34.5786302022891903       0.8981462390204987       1.0796450033846001
H     -34.5786302022891903      -0.8981462390204987       1.0796450033846001
C      35.8360349369178905       0.0000000000000000       0.4445597072760119
C     -35.8360349369178905       0.0000000000000000      -0.4445597072760119
H      35.8360349369178905       0.8981462390204987       1.0796450033846001
H      35.8360349369178905      -0.8981462390204987       1.0796450033846001
H     -35.8360349369178905       0.8981462390204987      -1.0796450033846001
H     -35.8360349369178905      -0.8981462390204987      -1.0796450033846001
C      37.0934396715465908       0.0000000000000000      -0.4445597072760119
C     -37.0934396715465908       0.0000000000000000       0.4445597072760119
H      37.0934396715465908       0.8981462390204987      -1.0796450033846001
H      37.0934396715465908      -0.8981462390204987      -1.0796450033846001
H     -37.0934396715465908       0.8981462390204987       1.0796450033846001
H     -37.0934396715465908      -0.8981462390204987       1.0796450033846001
H      37.9915859105670890       0.0000000000000000       0.1905255888325765
H     -37.9915859105670890       0.0000000000000000      -0.1905255888325765
